test/data/dist/3Bus_example_Curr_Elem.Txt

CIRCUIT ELEMENT CURRENTS

(Currents into element from indicated bus)

Power Delivery Elements

  Bus     Phase    Magnitude, A     Angle      (Real)   +j  (Imag)

ELEMENT = "Vsource.SOURCE"
SOURCEBUS     1            861.5 /_  143.8 =    -694.77 +j    509.39
SOURCEBUS     2           75.959 /_  -53.7 =     45.004 +j   -61.192
SOURCEBUS     3           81.938 /_  179.6 =    -81.936 +j   0.57315
------------
SOURCEBUS     0            861.5 /_  -36.2 =     694.77 +j   -509.39
SOURCEBUS     0           75.959 /_  126.3 =    -45.004 +j    61.192
SOURCEBUS     0           81.938 /_   -0.4 =     81.936 +j  -0.57315

ELEMENT = "Line.OHLINE"
SOURCEBUS     1            861.5 /_  -36.2 =     694.77 +j   -509.39
SOURCEBUS     2           75.959 /_  126.3 =    -45.004 +j    61.192
SOURCEBUS     3           81.938 /_   -0.4 =     81.936 +j  -0.57315
------------
PRIMARY       1           861.51 /_  143.8 =    -694.77 +j    509.39
PRIMARY       2           75.964 /_  -53.7 =     45.008 +j   -61.194
PRIMARY       3           81.942 /_  179.6 =     -81.94 +j   0.57048

ELEMENT = "Line.QUAD"
PRIMARY       1           858.36 /_  -31.5 =     731.71 +j   -448.76
PRIMARY       2        0.0051356 /_  -41.7 =  0.0038315 +j -0.0034197
PRIMARY       3         0.005235 /_ -136.3 =  -0.0037858 +j -0.0036157
------------
LOADBUS       1           858.36 /_  148.5 =    -731.71 +j    448.76
LOADBUS       2      4.4396E-013 /_  129.8 =  -2.8422E-013 +j 3.4106E-013
LOADBUS       3      5.0842E-013 /_ -116.6 =  -2.2737E-013 +j -4.5475E-013

ELEMENT = "Line.PV_LINE"
PV_BUS        1           70.998 /_   58.7 =     36.931 +j    60.637
PV_BUS        2           75.973 /_  -53.7 =     45.016 +j   -61.201
PV_BUS        3           81.949 /_  179.6 =    -81.947 +j   0.56367
------------
PRIMARY       1           70.996 /_ -121.3 =    -36.931 +j   -60.635
PRIMARY       2           75.969 /_  126.3 =    -45.012 +j    61.198
PRIMARY       3           81.945 /_   -0.4 =     81.944 +j  -0.56686

ELEMENT = "Fault.TEST"
LOADBUS       1           858.36 /_  -31.5 =     731.71 +j   -448.76
------------
LOADBUS       0           858.36 /_  148.5 =    -731.71 +j    448.76

= = = = = = = = = = = = = = = = = = =  = = = = = = = = = = =  = =

Power Conversion Elements

  Bus     Phase    Magnitude, A     Angle      (Real)   +j  (Imag)

ELEMENT = "PVSystem.PV1"
PV_BUS        1           39.693 /_ -177.1 =     -39.64 +j   -2.0421
PV_BUS        2           39.693 /_   62.9 =     18.052 +j    35.351
PV_BUS        3           39.693 /_  -57.1 =     21.589 +j   -33.308
PV_BUS        0                0 /_    0.0 =          0 +j         0

ELEMENT = "Storage.BAT2"
PV_BUS        1           58.658 /_  -87.4 =     2.7089 +j   -58.595
PV_BUS        2            68.16 /_  157.7 =    -63.068 +j     25.85
PV_BUS        3           68.669 /_   28.5 =     60.359 +j    32.745
PV_BUS        0                0 /_    0.0 =          0 +j         0

